 Abaqus/Standard 3DEXPERIENCE R2019x                  DATE 24-Mar-2022 TIME 14:35:47
 SUMMARY OF JOB INFORMATION:
 STEP  INC ATT SEVERE EQUIL TOTAL  TOTAL      STEP       INC OF       DOF    IF
               DISCON ITERS ITERS  TIME/    TIME/LPF    TIME/LPF    MONITOR RIKS
               ITERS               FREQ
   1     1   1     0     2     2  0.0100     0.0100     0.01000   
   1     2   1U    0     4     4  0.0100     0.0100     0.01000   
   1     2   2     0     2     2  0.0125     0.0125     0.002500  
   1     3   1     0     4     4  0.0163     0.0163     0.003750  
   1     4   1U    0     4     4  0.0163     0.0163     0.005625  
   1     4   2     0     3     3  0.0177     0.0177     0.001406  
   1     5   1     0     6     6  0.0198     0.0198     0.002109  
   1     6   1     0     6     6  0.0219     0.0219     0.002109  
   1     7   1     0     4     4  0.0240     0.0240     0.002109  
   1     8   1     0     3     3  0.0261     0.0261     0.002109  
   1     9   1     0     2     2  0.0293     0.0293     0.003164  
   1    10   1     0     3     3  0.0340     0.0340     0.004746  
   1    11   1     0     3     3  0.0411     0.0411     0.007119  
   1    12   1     0     2     2  0.0511     0.0511     0.01000   
   1    13   1     0     2     2  0.0611     0.0611     0.01000   
   1    14   1     0     2     2  0.0711     0.0711     0.01000   
   1    15   1     0     3     3  0.0811     0.0811     0.01000   
   1    16   1     0     2     2  0.0911     0.0911     0.01000   
   1    17   1     0     3     3  0.101      0.101      0.01000   
   1    18   1     0     2     2  0.111      0.111      0.01000   
   1    19   1     0     2     2  0.121      0.121      0.01000   
   1    20   1     0     2     2  0.131      0.131      0.01000   
   1    21   1     0     2     2  0.141      0.141      0.01000   
   1    22   1     0     2     2  0.151      0.151      0.01000   
   1    23   1     0     2     2  0.161      0.161      0.01000   
   1    24   1     0     2     2  0.171      0.171      0.01000   
   1    25   1     0     2     2  0.181      0.181      0.01000   
   1    26   1     0     2     2  0.191      0.191      0.01000   
   1    27   1     0     2     2  0.201      0.201      0.01000   
   1    28   1     0     2     2  0.211      0.211      0.01000   
   1    29   1     0     3     3  0.221      0.221      0.01000   
   1    30   1     0     2     2  0.231      0.231      0.01000   
   1    31   1     0     4     4  0.241      0.241      0.01000   
   1    32   1     0     3     3  0.251      0.251      0.01000   
   1    33   1     0     2     2  0.261      0.261      0.01000   
   1    34   1     0     2     2  0.271      0.271      0.01000   
   1    35   1     0     2     2  0.281      0.281      0.01000   
   1    36   1     0     3     3  0.291      0.291      0.01000   
   1    37   1     0     2     2  0.301      0.301      0.01000   
   1    38   1     0     2     2  0.311      0.311      0.01000   
   1    39   1     0     2     2  0.321      0.321      0.01000   
   1    40   1     0     2     2  0.331      0.331      0.01000   
   1    41   1     0     3     3  0.341      0.341      0.01000   
   1    42   1     0     2     2  0.351      0.351      0.01000   
   1    43   1     0     2     2  0.361      0.361      0.01000   
   1    44   1     0     2     2  0.371      0.371      0.01000   
   1    45   1     0     2     2  0.381      0.381      0.01000   
   1    46   1     0     2     2  0.391      0.391      0.01000   
   1    47   1     0     2     2  0.401      0.401      0.01000   
   1    48   1     0     2     2  0.411      0.411      0.01000   
   1    49   1     0     2     2  0.421      0.421      0.01000   
   1    50   1     0     2     2  0.431      0.431      0.01000   
   1    51   1     0     2     2  0.441      0.441      0.01000   
   1    52   1     0     2     2  0.451      0.451      0.01000   
   1    53   1     0     2     2  0.461      0.461      0.01000   
   1    54   1     0     1     1  0.471      0.471      0.01000   
   1    55   1     0     2     2  0.481      0.481      0.01000   
   1    56   1     0     2     2  0.491      0.491      0.01000   
   1    57   1     0     2     2  0.501      0.501      0.01000   
   1    58   1     0     1     1  0.511      0.511      0.01000   
   1    59   1     0     2     2  0.521      0.521      0.01000   
   1    60   1     0     2     2  0.531      0.531      0.01000   
   1    61   1     0     2     2  0.541      0.541      0.01000   
   1    62   1     0     2     2  0.551      0.551      0.01000   
   1    63   1     0     1     1  0.561      0.561      0.01000   
   1    64   1     0     1     1  0.571      0.571      0.01000   
   1    65   1     0     2     2  0.581      0.581      0.01000   
   1    66   1     0     2     2  0.591      0.591      0.01000   
   1    67   1     0     1     1  0.601      0.601      0.01000   
   1    68   1     0     1     1  0.611      0.611      0.01000   
   1    69   1     0     2     2  0.621      0.621      0.01000   
   1    70   1     0     1     1  0.631      0.631      0.01000   
   1    71   1     0     2     2  0.641      0.641      0.01000   
   1    72   1     0     1     1  0.651      0.651      0.01000   
   1    73   1     0     1     1  0.661      0.661      0.01000   
   1    74   1     0     2     2  0.671      0.671      0.01000   
   1    75   1     0     1     1  0.681      0.681      0.01000   
   1    76   1     0     2     2  0.691      0.691      0.01000   
   1    77   1     0     1     1  0.701      0.701      0.01000   
   1    78   1     0     1     1  0.711      0.711      0.01000   
   1    79   1     0     1     1  0.721      0.721      0.01000   
   1    80   1     0     1     1  0.731      0.731      0.01000   
   1    81   1     0     2     2  0.741      0.741      0.01000   
   1    82   1     0     2     2  0.751      0.751      0.01000   
   1    83   1     0     2     2  0.761      0.761      0.01000   
   1    84   1     0     1     1  0.771      0.771      0.01000   
   1    85   1     0     1     1  0.781      0.781      0.01000   
   1    86   1     0     1     1  0.791      0.791      0.01000   
   1    87   1     0     1     1  0.801      0.801      0.01000   
   1    88   1     0     1     1  0.811      0.811      0.01000   
   1    89   1     0     1     1  0.821      0.821      0.01000   
   1    90   1     0     1     1  0.831      0.831      0.01000   
   1    91   1     0     1     1  0.841      0.841      0.01000   
   1    92   1     0     1     1  0.851      0.851      0.01000   
   1    93   1     0     1     1  0.861      0.861      0.01000   
   1    94   1     0     1     1  0.871      0.871      0.01000   
