 Abaqus/Standard 3DEXPERIENCE R2019x                  DATE 30-Mar-2022 TIME 16:01:48
 SUMMARY OF JOB INFORMATION:
 STEP  INC ATT SEVERE EQUIL TOTAL  TOTAL      STEP       INC OF       DOF    IF
               DISCON ITERS ITERS  TIME/    TIME/LPF    TIME/LPF    MONITOR RIKS
               ITERS               FREQ
   1     1   1     0     2     2  0.00100    0.00100    0.001000  
   1     2   1     0     1     1  0.00200    0.00200    0.001000  
   1     3   1     0     1     1  0.00350    0.00350    0.001500  
   1     4   1     0     1     1  0.00575    0.00575    0.002250  
   1     5   1     0     5     5  0.00913    0.00913    0.003375  
   1     6   1U    0     4     4  0.00913    0.00913    0.003375  
   1     6   2     0     5     5  0.00997    0.00997    0.0008438 
   1     7   1     0     3     3  0.0108     0.0108     0.0008438 
   1     8   1     0     3     3  0.0117     0.0117     0.0008438 
   1     9   1     0     3     3  0.0129     0.0129     0.001266  
   1    10   1     0     3     3  0.0148     0.0148     0.001898  
   1    11   1     0     3     3  0.0177     0.0177     0.002848  
   1    12   1     0     3     3  0.0219     0.0219     0.004271  
   1    13   1     0     3     3  0.0283     0.0283     0.006407  
   1    14   1     0     3     3  0.0380     0.0380     0.009611  
   1    15   1     0     4     4  0.0480     0.0480     0.01000   
   1    16   1     0     4     4  0.0580     0.0580     0.01000   
   1    17   1     0     3     3  0.0680     0.0680     0.01000   
   1    18   1     0     3     3  0.0780     0.0780     0.01000   
   1    19   1     0     3     3  0.0880     0.0880     0.01000   
   1    20   1     0     3     3  0.0980     0.0980     0.01000   
   1    21   1     0     2     2  0.108      0.108      0.01000   
   1    22   1     0     3     3  0.118      0.118      0.01000   
   1    23   1     0     2     2  0.128      0.128      0.01000   
   1    24   1     0     3     3  0.138      0.138      0.01000   
   1    25   1     0     3     3  0.148      0.148      0.01000   
   1    26   1     0     2     2  0.158      0.158      0.01000   
   1    27   1     0     2     2  0.168      0.168      0.01000   
   1    28   1     0     2     2  0.178      0.178      0.01000   
   1    29   1     0     2     2  0.188      0.188      0.01000   
   1    30   1     0     2     2  0.198      0.198      0.01000   
   1    31   1     0     2     2  0.208      0.208      0.01000   
   1    32   1     0     2     2  0.218      0.218      0.01000   
   1    33   1     0     2     2  0.228      0.228      0.01000   
   1    34   1     0     2     2  0.238      0.238      0.01000   
   1    35   1     0     2     2  0.248      0.248      0.01000   
   1    36   1     0     1     1  0.258      0.258      0.01000   
   1    37   1     0     2     2  0.268      0.268      0.01000   
   1    38   1     0     1     1  0.278      0.278      0.01000   
   1    39   1     0     2     2  0.288      0.288      0.01000   
   1    40   1     0     2     2  0.298      0.298      0.01000   
   1    41   1     0     2     2  0.308      0.308      0.01000   
   1    42   1     0     1     1  0.318      0.318      0.01000   
   1    43   1     0     1     1  0.328      0.328      0.01000   
   1    44   1     0     2     2  0.338      0.338      0.01000   
   1    45   1     0     1     1  0.348      0.348      0.01000   
   1    46   1     0     2     2  0.358      0.358      0.01000   
   1    47   1     0     2     2  0.368      0.368      0.01000   
   1    48   1     0     2     2  0.378      0.378      0.01000   
   1    49   1     0     1     1  0.388      0.388      0.01000   
   1    50   1     0     1     1  0.398      0.398      0.01000   
   1    51   1     0     1     1  0.408      0.408      0.01000   
   1    52   1     0     1     1  0.418      0.418      0.01000   
   1    53   1     0     1     1  0.428      0.428      0.01000   
   1    54   1     0     1     1  0.438      0.438      0.01000   
   1    55   1     0     1     1  0.448      0.448      0.01000   
   1    56   1     0     1     1  0.458      0.458      0.01000   
   1    57   1     0     1     1  0.468      0.468      0.01000   
   1    58   1     0     1     1  0.478      0.478      0.01000   
   1    59   1     0     1     1  0.488      0.488      0.01000   
   1    60   1     0     1     1  0.498      0.498      0.01000   
   1    61   1     0     1     1  0.508      0.508      0.01000   
   1    62   1     0     1     1  0.518      0.518      0.01000   
   1    63   1     0     1     1  0.528      0.528      0.01000   
   1    64   1     0     1     1  0.538      0.538      0.01000   
   1    65   1     0     1     1  0.548      0.548      0.01000   
   1    66   1     0     1     1  0.558      0.558      0.01000   
   1    67   1     0     1     1  0.568      0.568      0.01000   
   1    68   1     0     1     1  0.578      0.578      0.01000   
   1    69   1     0     1     1  0.588      0.588      0.01000   
   1    70   1     0     1     1  0.598      0.598      0.01000   
   1    71   1     0     1     1  0.608      0.608      0.01000   
   1    72   1     0     1     1  0.618      0.618      0.01000   
   1    73   1     0     1     1  0.628      0.628      0.01000   
   1    74   1     0     1     1  0.638      0.638      0.01000   
   1    75   1     0     1     1  0.648      0.648      0.01000   
   1    76   1     0     1     1  0.658      0.658      0.01000   
   1    77   1     0     1     1  0.668      0.668      0.01000   
   1    78   1     0     1     1  0.678      0.678      0.01000   
   1    79   1     0     1     1  0.688      0.688      0.01000   
   1    80   1     0     1     1  0.698      0.698      0.01000   
   1    81   1     0     1     1  0.708      0.708      0.01000   
   1    82   1     0     1     1  0.718      0.718      0.01000   
   1    83   1     0     1     1  0.728      0.728      0.01000   
   1    84   1     0     1     1  0.738      0.738      0.01000   
   1    85   1     0     1     1  0.748      0.748      0.01000   
   1    86   1     0     1     1  0.758      0.758      0.01000   
   1    87   1     0     1     1  0.768      0.768      0.01000   
   1    88   1     0     1     1  0.778      0.778      0.01000   
   1    89   1     0     1     1  0.788      0.788      0.01000   
   1    90   1     0     1     1  0.798      0.798      0.01000   
   1    91   1     0     1     1  0.808      0.808      0.01000   
   1    92   1     0     1     1  0.818      0.818      0.01000   
   1    93   1     0     1     1  0.828      0.828      0.01000   
   1    94   1     0     1     1  0.838      0.838      0.01000   
   1    95   1     0     1     1  0.848      0.848      0.01000   
   1    96   1     0     1     1  0.858      0.858      0.01000   
   1    97   1     0     1     1  0.868      0.868      0.01000   
   1    98   1     0     1     1  0.878      0.878      0.01000   
   1    99   1     0     1     1  0.888      0.888      0.01000   
   1   100   1     0     1     1  0.898      0.898      0.01000   
   1   101   1     0     1     1  0.908      0.908      0.01000   
   1   102   1     0     1     1  0.918      0.918      0.01000   
   1   103   1     0     1     1  0.928      0.928      0.01000   
   1   104   1     0     1     1  0.938      0.938      0.01000   
   1   105   1     0     1     1  0.948      0.948      0.01000   
   1   106   1     0     1     1  0.958      0.958      0.01000   
   1   107   1     0     1     1  0.968      0.968      0.01000   
   1   108   1     0     1     1  0.978      0.978      0.01000   
   1   109   1     0     1     1  0.988      0.988      0.01000   
   1   110   1     0     1     1  0.998      0.998      0.01000   
   1   111   1     0     1     1  1.00       1.00       0.002042  
                          
 THE ANALYSIS HAS COMPLETED SUCCESSFULLY
