*Heading
** Job name: Dogbone Model name: Model-2D
** Generated by: Abaqus/CAE 2019
*Preprint, echo=NO, model=NO, history=NO, contact=NO
**
** PARTS
**
*Part, name=Part-1
*Node
      1,           0.,           0.
      2,           5.,           0.
      3,          10.,           0.
      4,          15.,           0.
      5,           0.,   8.33333302
      6,   5.38732576,   8.53676033
      7,   10.7746515,   8.74018764
      8,   16.1619778,   8.94361496
      9,           0.,    16.666666
     10,    6.5235858,   16.8755722
     11,   13.0471716,   17.0844803
     12,   19.5707569,   17.2933865
     13,           0.,          25.
     14,   8.33333302,   24.8316326
     15,    16.666666,   24.6632652
     16,          25.,   24.4948978
     17,           0.,   33.3333321
     18,   8.33333302,   33.2210884
     19,    16.666666,   33.1088448
     20,          25.,   32.9965973
** ... 8 like lines cut
*Element, type=CPS4
 1,  1,  2,  6,  5
 2,  2,  3,  7,  6
 3,  3,  4,  8,  7
 4,  5,  6, 10,  9
 5,  6,  7, 11, 10
 6,  7,  8, 12, 11
 7,  9, 10, 14, 13
 8, 10, 11, 15, 14
 9, 11, 12, 16, 15
10, 13, 14, 18, 17
11, 14, 15, 19, 18
12, 15, 16, 20, 19
13, 17, 18, 22, 21
14, 18, 19, 23, 22
15, 19, 20, 24, 23
16, 21, 22, 26, 25
17, 22, 23, 27, 26
18, 23, 24, 28, 27
*Nset, nset=Set-1, generate
  1,  28,   1
*Elset, elset=Set-1, generate
  1,  18,   1
*Orientation, name=Ori-1
1., 0., 0., 0., 1., 0.
3, 90.
** Section: Section-1
*Solid Section, elset=Set-1, orientation=Ori-1, material=Material-2
1.,
*End Part
**  
**
** ASSEMBLY
**
*Assembly, name=Assembly
**  
*Instance, name=Part-1-1, part=Part-1
*End Instance
**  
*Nset, nset=LOAD, instance=Part-1-1, generate
 25,  28,   1
*Elset, elset=LOAD, instance=Part-1-1, generate
 16,  18,   1
*Nset, nset=Set-1, instance=Part-1-1, generate
 1,  4,  1
*Elset, elset=Set-1, instance=Part-1-1, generate
 1,  3,  1
*Nset, nset=Set-2, instance=Part-1-1, generate
  1,  25,   4
*Elset, elset=Set-2, instance=Part-1-1, generate
  1,  16,   3
*End Assembly
** 
** MATERIALS
** 
*Material, name=Material-1
*Depvar
      4,
*User Material, constants=10
0.,     0.,200000.,    0.3,     0.,     1.,   250.,   600.
     0.,     0.
*User Output Variables
      2,
*Material, name=Material-2
*Elastic
210000., 0.3
*Plastic
    160.,    0.
  181.97, 0.005
  198.25,  0.01
 211.424, 0.015
 222.605,  0.02
 232.384, 0.025
 241.114,  0.03
 249.027, 0.035
 256.283,  0.04
 262.998, 0.045
 269.257,  0.05
 275.127, 0.055
 280.661,  0.06
 285.901, 0.065
 290.881,  0.07
  295.63, 0.075
 300.171,  0.08
 304.524, 0.085
 308.707,  0.09
 312.735, 0.095
** ... 81 like lines cut
*Potential
1., 1.051, 1.239, 0.982,    1.,    1.
** 
** BOUNDARY CONDITIONS
** 
** Name: BC-1 Type: Symmetry/Antisymmetry/Encastre
*Boundary
Set-1, YSYMM
** Name: BC-2 Type: Symmetry/Antisymmetry/Encastre
*Boundary
Set-2, XSYMM
** Name: LOAD Type: Displacement/Rotation
*Boundary
LOAD, 1, 1
LOAD, 2, 2
LOAD, 6, 6
** ----------------------------------------------------------------
** 
** STEP: Step-1
** 
*Step, name=Step-1, nlgeom=YES, inc=10000000
*Static
0.01, 1., 1e-05, 0.1
** 
** BOUNDARY CONDITIONS
** 
** Name: LOAD Type: Displacement/Rotation
*Boundary
LOAD, 2, 2, 6.
** 
** OUTPUT REQUESTS
** 
*Restart, write, frequency=0
** 
** FIELD OUTPUT: F-Output-1
** 
*Output, field
*Node Output
COORD, RF, U
*Element Output, directions=YES
LE, S, PEEQ
*Output, history, frequency=0
*End Step
