 Abaqus/Standard 3DEXPERIENCE R2019x                  DATE 24-Mar-2022 TIME 14:35:14
 SUMMARY OF JOB INFORMATION:
 STEP  INC ATT SEVERE EQUIL TOTAL  TOTAL      STEP       INC OF       DOF    IF
               DISCON ITERS ITERS  TIME/    TIME/LPF    TIME/LPF    MONITOR RIKS
               ITERS               FREQ
   1     1   1     0     4     4  0.0100     0.0100     0.01000   
   1     2   1U    0     4     4  0.0100     0.0100     0.01000   
   1     2   2     0     4     4  0.0125     0.0125     0.002500  
   1     3   1     0     5     5  0.0163     0.0163     0.003750  
   1     4   1U    0     4     4  0.0163     0.0163     0.003750  
   1     4   2     0     4     4  0.0172     0.0172     0.0009375 
   1     5   1     0     4     4  0.0181     0.0181     0.0009375 
   1     6   1     0     4     4  0.0195     0.0195     0.001406  
   1     7   1     0     4     4  0.0216     0.0216     0.002109  
   1     8   1     0     3     3  0.0248     0.0248     0.003164  
   1     9   1     0     3     3  0.0296     0.0296     0.004746  
   1    10   1U    0     4     4  0.0296     0.0296     0.007119  
   1    10   2     0     3     3  0.0313     0.0313     0.001780  
   1    11   1     0     3     3  0.0340     0.0340     0.002670  
   1    12   1     0     3     3  0.0380     0.0380     0.004005  
   1    13   1     0     3     3  0.0440     0.0440     0.006007  
   1    14   1     0     3     3  0.0530     0.0530     0.009010  
   1    15   1     0     3     3  0.0630     0.0630     0.01000   
   1    16   1     0     4     4  0.0730     0.0730     0.01000   
   1    17   1     0     5     5  0.0830     0.0830     0.01000   
   1    18   1     0     5     5  0.0930     0.0930     0.01000   
   1    19   1     0     4     4  0.103      0.103      0.01000   
   1    20   1     0     4     4  0.113      0.113      0.01000   
   1    21   1     0     4     4  0.123      0.123      0.01000   
   1    22   1     0     4     4  0.133      0.133      0.01000   
   1    23   1     0     4     4  0.143      0.143      0.01000   
   1    24   1     0     3     3  0.153      0.153      0.01000   
   1    25   1     0     2     2  0.163      0.163      0.01000   
   1    26   1     0     3     3  0.173      0.173      0.01000   
   1    27   1     0     3     3  0.183      0.183      0.01000   
   1    28   1     0     2     2  0.193      0.193      0.01000   
   1    29   1     0     2     2  0.203      0.203      0.01000   
   1    30   1     0     3     3  0.213      0.213      0.01000   
   1    31   1     0     2     2  0.223      0.223      0.01000   
   1    32   1     0     2     2  0.233      0.233      0.01000   
   1    33   1     0     2     2  0.243      0.243      0.01000   
   1    34   1     0     2     2  0.253      0.253      0.01000   
   1    35   1     0     1     1  0.263      0.263      0.01000   
   1    36   1     0     2     2  0.273      0.273      0.01000   
   1    37   1     0     2     2  0.283      0.283      0.01000   
   1    38   1     0     2     2  0.293      0.293      0.01000   
   1    39   1     0     2     2  0.303      0.303      0.01000   
   1    40   1     0     1     1  0.313      0.313      0.01000   
   1    41   1     0     2     2  0.323      0.323      0.01000   
   1    42   1     0     1     1  0.333      0.333      0.01000   
   1    43   1     0     1     1  0.343      0.343      0.01000   
   1    44   1     0     1     1  0.353      0.353      0.01000   
   1    45   1     0     1     1  0.363      0.363      0.01000   
   1    46   1     0     1     1  0.373      0.373      0.01000   
   1    47   1     0     2     2  0.383      0.383      0.01000   
   1    48   1     0     1     1  0.393      0.393      0.01000   
   1    49   1     0     1     1  0.403      0.403      0.01000   
   1    50   1     0     1     1  0.413      0.413      0.01000   
   1    51   1     0     1     1  0.423      0.423      0.01000   
   1    52   1     0     1     1  0.433      0.433      0.01000   
   1    53   1     0     1     1  0.443      0.443      0.01000   
   1    54   1     0     1     1  0.453      0.453      0.01000   
   1    55   1     0     1     1  0.463      0.463      0.01000   
   1    56   1     0     1     1  0.473      0.473      0.01000   
   1    57   1     0     2     2  0.483      0.483      0.01000   
   1    58   1     0     1     1  0.493      0.493      0.01000   
   1    59   1     0     1     1  0.503      0.503      0.01000   
   1    60   1     0     2     2  0.513      0.513      0.01000   
   1    61   1     0     1     1  0.523      0.523      0.01000   
   1    62   1     0     2     2  0.533      0.533      0.01000   
   1    63   1     0     1     1  0.543      0.543      0.01000   
   1    64   1     0     2     2  0.553      0.553      0.01000   
   1    65   1     0     1     1  0.563      0.563      0.01000   
   1    66   1     0     1     1  0.573      0.573      0.01000   
   1    67   1     0     1     1  0.583      0.583      0.01000   
   1    68   1     0     1     1  0.593      0.593      0.01000   
   1    69   1     0     2     2  0.603      0.603      0.01000   
   1    70   1     0     1     1  0.613      0.613      0.01000   
   1    71   1     0     1     1  0.623      0.623      0.01000   
   1    72   1     0     2     2  0.633      0.633      0.01000   
   1    73   1     0     1     1  0.643      0.643      0.01000   
   1    74   1     0     1     1  0.653      0.653      0.01000   
   1    75   1     0     1     1  0.663      0.663      0.01000   
   1    76   1     0     1     1  0.673      0.673      0.01000   
   1    77   1     0     1     1  0.683      0.683      0.01000   
   1    78   1     0     2     2  0.693      0.693      0.01000   
   1    79   1     0     1     1  0.703      0.703      0.01000   
   1    80   1     0     1     1  0.713      0.713      0.01000   
   1    81   1     0     1     1  0.723      0.723      0.01000   
   1    82   1     0     1     1  0.733      0.733      0.01000   
   1    83   1     0     1     1  0.743      0.743      0.01000   
   1    84   1     0     1     1  0.753      0.753      0.01000   
   1    85   1     0     1     1  0.763      0.763      0.01000   
   1    86   1     0     1     1  0.773      0.773      0.01000   
   1    87   1     0     1     1  0.783      0.783      0.01000   
   1    88   1     0     1     1  0.793      0.793      0.01000   
   1    89   1     0     1     1  0.803      0.803      0.01000   
   1    90   1     0     2     2  0.813      0.813      0.01000   
   1    91   1     0     1     1  0.823      0.823      0.01000   
   1    92   1     0     1     1  0.833      0.833      0.01000   
   1    93   1     0     1     1  0.843      0.843      0.01000   
   1    94   1     0     1     1  0.853      0.853      0.01000   
   1    95   1     0     1     1  0.863      0.863      0.01000   
   1    96   1     0     2     2  0.873      0.873      0.01000   
   1    97   1     0     1     1  0.883      0.883      0.01000   
   1    98   1     0     1     1  0.893      0.893      0.01000   
   1    99   1     0     1     1  0.903      0.903      0.01000   
   1   100   1     0     1     1  0.913      0.913      0.01000   
   1   101   1     0     1     1  0.923      0.923      0.01000   
   1   102   1     0     1     1  0.933      0.933      0.01000   
   1   103   1     0     1     1  0.943      0.943      0.01000   
   1   104   1     0     1     1  0.953      0.953      0.01000   
   1   105   1     0     1     1  0.963      0.963      0.01000   
   1   106   1     0     1     1  0.973      0.973      0.01000   
   1   107   1     0     1     1  0.983      0.983      0.01000   
   1   108   1     0     1     1  0.993      0.993      0.01000   
   1   109   1     0     1     1  1.00       1.00       0.006978  
                          
 THE ANALYSIS HAS COMPLETED SUCCESSFULLY
