 Abaqus/Standard 3DEXPERIENCE R2019x                  DATE 17-Mar-2022 TIME 17:56:10
 SUMMARY OF JOB INFORMATION:
 STEP  INC ATT SEVERE EQUIL TOTAL  TOTAL      STEP       INC OF       DOF    IF
               DISCON ITERS ITERS  TIME/    TIME/LPF    TIME/LPF    MONITOR RIKS
               ITERS               FREQ
   1     1   1U    0     4     4  0.00       0.00       0.01000   
   1     1   2     0     2     2  0.00250    0.00250    0.002500  
   1     2   1     0     4     4  0.00500    0.00500    0.002500  
   1     3   1U    0     4     4  0.00500    0.00500    0.003750  
   1     3   2     0     4     4  0.00594    0.00594    0.0009375 
   1     4   1     0     3     3  0.00734    0.00734    0.001406  
   1     5   1     0     3     3  0.00945    0.00945    0.002109  
   1     6   1     0     3     3  0.0126     0.0126     0.003164  
   1     7   1     0     3     3  0.0174     0.0174     0.004746  
   1     8   1     0     4     4  0.0245     0.0245     0.007119  
   1     9   1     0     4     4  0.0352     0.0352     0.01068   
   1    10   1     0     4     4  0.0512     0.0512     0.01602   
   1    11   1     0     4     4  0.0752     0.0752     0.02403   
   1    12   1     0     4     4  0.111      0.111      0.03604   
   1    13   1     0     4     4  0.161      0.161      0.05000   
   1    14   1     0     3     3  0.211      0.211      0.05000   
   1    15   1     0     2     2  0.261      0.261      0.05000   
   1    16   1     0     3     3  0.311      0.311      0.05000   
   1    17   1     0     2     2  0.361      0.361      0.05000   
   1    18   1     0     2     2  0.411      0.411      0.05000   
   1    19   1     0     2     2  0.461      0.461      0.05000   
   1    20   1     0     2     2  0.511      0.511      0.05000   
   1    21   1     0     2     2  0.561      0.561      0.05000   
   1    22   1     0     2     2  0.611      0.611      0.05000   
   1    23   1     0     2     2  0.661      0.661      0.05000   
   1    24   1     0     2     2  0.711      0.711      0.05000   
   1    25   1     0     2     2  0.761      0.761      0.05000   
   1    26   1     0     2     2  0.811      0.811      0.05000   
   1    27   1     0     2     2  0.861      0.861      0.05000   
   1    28   1     0     2     2  0.911      0.911      0.05000   
   1    29   1     0     2     2  0.961      0.961      0.05000   
   1    30   1     0     2     2  1.00       1.00       0.03875   
                          
 THE ANALYSIS HAS COMPLETED SUCCESSFULLY
